cases/transmission/generated_cases/hourly_case_23.m
%% MATPOWER Case Format : Version 2
function mpc = case2383wp
mpc.version = '2';

%%-----  Power Flow Data  -----%%
%% system MVA base
mpc.baseMVA = 100;
%% bus data
%    bus_i    type    Pd    Qd    Gs    Bs    area    Vm    Va    baseKV    zone    Vmax    Vmin
mpc.bus = [
	1	1	0.0	0.0	0.0	0.0	1	1.0429723031103386	2.780933586905577	220.0	1	1.11	0.95				
	2	1	0.0	0.0	0.0	0.0	1	1.0253855534023804	-1.810486528690086	220.0	1	1.11	0.95				
	3	1	0.0	0.0	0.0	0.0	1	1.0314461449665981	-12.80868552350296	220.0	1	1.11	0.95				
	4	1	0.0	0.0	0.0	0.0	1	1.033824663622587	-2.0688950608464216	220.0	1	1.11	0.95				
	5	1	0.0	0.0	0.0	0.0	1	1.0386380557046582	-5.485663160788532	220.0	1	1.11	0.95				
	6	1	0.0	0.0	0.0	0.0	1	1.0073782663504536	-1.9727730813756439	400.0	1	1.05	0.95				
	7	1	0.0	0.0	0.0	0.0	1	1.0363818474874034	-6.042012857840366	220.0	1	1.11	0.95				
	8	1	0.0	0.0	0.0	0.0	1	1.0087806657357425	-1.5196333210298973	400.0	1	1.05	0.95				
	9	1	0.0	0.0	0.0	0.0	1	1.0145088424733626	-4.145969502693309	400.0	1	1.05	0.95				
	10	2	7.338	5.4	0.0	0.0	1	1.037748660573357	-10.687827260518524	220.0	1	1.11	0.95				
	11	1	0.0	0.0	0.0	0.0	1	1.0357503289552106	-1.5751244827158895	220.0	1	1.11	0.95				
	12	1	0.0	0.0	0.0	0.0	1	1.0406632981500237	-6.844491930680749	220.0	1	1.11	0.95				
	13	1	0.0	0.0	0.0	0.0	1	1.0390878833074002	-5.936265618497484	220.0	1	1.11	0.95				
	14	1	0.0	0.0	0.0	0.0	1	1.0213077275179643	-2.1720613859450775	220.0	1	1.11	0.95				
	15	1	0.0	0.0	0.0	0.0	1	1.0052206982852507	-3.043343376684562	400.0	1	1.05	0.95				
	16	2	32.928000000000004	60.0	0.0	0.0	1	1.0438185367067376	3.2214698281116356	220.0	1	1.11	0.95				
	17	2	46.199999999999996	89.99999999999999	0.0	0.0	1	1.026866474891234	-1.3844956744448955	220.0	1	1.11	0.95				
	18	3	91.8	210.0	0.0	0.0	1	0.9860846591306065	-3.354460309603298e-28	400.0	1	1.05	0.95				
	19	1	0.0	0.0	0.0	0.0	1	1.0440756294889069	-6.612372707126216	220.0	1	1.11	0.95				
	20	1	0.0	0.0	0.0	0.0	1	0.9909837071557225	0.32886322470139917	400.0	1	1.05	0.95				
	21	1	0.0	0.0	0.0	0.0	1	1.0374510519932214	-6.236991570527804	220.0	1	1.11	0.95				
	22	1	0.0	0.0	0.0	0.0	1	1.0401117988420703	-3.487945972465032	220.0	1	1.11	0.95				
	23	1	0.0	0.0	0.0	0.0	1	1.0439484533375756	-3.243228143598209	220.0	2	1.11	0.95				
	24	1	0.0	0.0	0.0	0.0	1	1.0580114789292199	-1.2056233026645569	220.0	2	1.11	0.95				
	25	1	0.0	0.0	0.0	0.0	1	1.052348931448446	-0.684035522909183	220.0	2	1.11	0.95				
	26	1	0.0	0.0	0.0	0.0	1	1.0427667211205878	-3.8248275037385295	220.0	2	1.11	0.95				
	27	1	0.0	0.0	0.0	0.0	1	1.0421314774488288	-0.8364102014196673	220.0	2	1.11	0.95				
	28	1	0.0	0.0	0.0	0.0	1	1.0421319797055317	-0.8319888052437562	220.0	2	1.11	0.95				
	29	2	15.588000000000001	36.0	0.0	0.0	1	1.0422042795622308	-2.8840179753811994	220.0	2	1.11	0.95				
	30	2	15.588000000000001	36.0	0.0	0.0	1	1.0421632062170698	-2.8869730849466513	220.0	2	1.11	0.95				
	31	2	12.588	30.0	0.0	0.0	1	1.0012449867852404	1.6606548299324673	400.0	2	1.05	0.95				
	32	1	0.0	0.0	0.0	0.0	1	1.0011267801814094	1.6270664989228494	400.0	2	1.05	0.95				
	33	1	0.0	0.0	0.0	0.0	1	1.0391617041131374	-1.3319433104320577	220.0	2	1.11	0.95				
	34	1	0.0	0.0	0.0	0.0	1	1.043113773053532	0.5787263814545691	400.0	2	1.05	0.95				
	35	1	0.0	0.0	0.0	0.0	1	1.0431566089489546	0.5745561583274006	400.0	2	1.05	0.95				
	36	1	0.0	0.0	0.0	0.0	1	0.9902270429987419	-0.7072865483899324	400.0	2	1.05	0.95				
	37	1	0.0	0.0	0.0	0.0	1	1.0465931405296975	-2.4169939013914448	220.0	2	1.11	0.95				
	38	1	0.0	0.0	0.0	0.0	1	1.0465823402238288	-2.414040960445458	220.0	2	1.11	0.95				
	39	1	0.0	0.0	0.0	0.0	1	1.0081297281453712	1.846371778347028	400.0	2	1.05	0.95				
	40	1	0.0	0.0	0.0	0.0	1	1.0081543204703036	1.8500811251387068	400.0	2	1.05	0.95				
	41	2	7.194000000000001	18.0	0.0	0.0	1	1.0547284365500793	0.4411548766122931	220.0	2	1.11	0.95				
	42	2	7.194000000000001	18.0	0.0	0.0	1	1.0547060378155726	0.4313915424384053	220.0	2	1.11	0.95				
	43	2	14.388000000000002	36.0	0.0	0.0	1	1.0184010421085268	3.327817152524512	400.0	2	1.05	0.95				
	44	2	14.388000000000002	36.0	0.0	0.0	1	1.0184238567196793	3.3226287917102435	400.0	2	1.05	0.95				
	45	2	95.904	44.99999999999999	0.0	0.0	1	1.037799433546779	-3.3490809422597714	220.0	2	1.11	0.95				
	46	1	0.0	0.0	0.0	0.0	1	1.0378260192448905	-3.347547520612491	220.0	2	1.11	0.95				
	47	1	0.0	0.0	0.0	0.0	1	1.042622102870397	-1.2417512439011298	220.0	2	1.11	0.95				
	48	1	0.0	0.0	0.0	0.0	1	1.0383886927301942	-3.2880244916555053	220.0	2	1.11	0.95				
	49	1	0.0	0.0	0.0	0.0	1	1.0383919434609772	-3.2900200653341694	220.0	2	1.11	0.95				
	50	1	0.0	0.0	0.0	0.0	1	1.0263118717131925	1.6074087699442796	400.0	2	1.05	0.95				
	51	1	0.0	0.0	0.0	0.0	1	1.0264335060631198	1.596506452795914	400.0	2	1.05	0.95				
	52	1	0.0	0.0	0.0	0.0	1	1.0444771713898853	-2.140120418088916	220.0	2	1.11	0.95				
	53	1	0.0	0.0	0.0	0.0	1	1.0465259881162674	-1.97793760937288	220.0	2	1.11	0.95				
	54	1	0.0	0.0	0.0	0.0	1	1.0526731163459326	-0.6416531570609157	220.0	2	1.11	0.95				
	55	1	0.0	0.0	0.0	0.0	1	1.046903233633898	-1.2112536369638705	220.0	2	1.11	0.95				
	56	1	0.0	0.0	0.0	0.0	1	1.0402923814644536	0.8778796835516414	220.0	3	1.11	0.95				
	57	1	13.788	6.576	0.0	0.0	1	1.071701948658102	2.023990857414649	220.0	3	1.11	0.95				
	58	1	13.187999999999999	3.474	0.0	0.0	1	1.0718334162112388	2.0225819320989333	220.0	3	1.11	0.95				
	59	1	0.0	0.0	0.0	0.0	1	1.077051256024866	9.934734341912057	220.0	3	1.11	0.95				
	60	1	0.0	0.0	0.0	0.0	1	1.064502177140463	3.90230617155238	220.0	3	1.11	0.95				
	61	1	0.0	0.0	0.0	0.0	1	1.0873285645174338	12.419027054825495	220.0	3	1.11	0.95				
	62	1	0.0	0.0	0.0	0.0	1	1.087341526683761	12.423223029994656	220.0	3	1.11	0.95				
	63	2	22.421999999999997	31.613999999999994	0.0	0.0	1	1.0740467773149254	9.588625862583378	220.0	3	1.11	0.95				
	64	2	21.221999999999998	33.192	0.0	0.0	1	1.0711014053059382	9.246167655339988	220.0	3	1.11	0.95				
	65	1	8.034	1.212	0.0	0.0	1	1.0729590801181037	7.976918624068138	220.0	3	1.11	0.95				
	66	1	0.0	0.0	0.0	0.0	1	1.063471854521423	2.093855126626926	220.0	3	1.11	0.95				
	67	2	36.24	55.26	0.0	0.0	1	1.0005669936220527	3.528025125796746	400.0	3	1.05	0.95				
	68	1	0.0	0.0	0.0	0.0	1	1.0659732473707046	2.620844760337128	220.0	3	1.11	0.95				
	69	1	0.0	0.0	0.0	0.0	1	1.070324760020039	7.828209831934831	220.0	3	1.11	0.95				
	70	1	0.0	0.0	0.0	0.0	1	1.0434981991926149	1.9375446669335845	220.0	3	1.11	0.95				
	71	1	0.0	0.0	0.0	0.0	1	1.059511891092805	6.237399954016659	220.0	3	1.11	0.95				
	72	1	0.0	0.0	0.0	0.0	1	1.059511891092805	6.237399954016659	220.0	3	1.11	0.95				
	73	1	0.0	0.0	0.0	0.0	1	1.044795648138661	2.5068363934268194	220.0	3	1.11	0.95				
	74	1	0.0	0.0	0.0	0.0	1	1.0428763126002494	1.2641822657159714	220.0	3	1.11	0.95				
	75	1	0.0	0.0	0.0	0.0	1	0.9875615027909361	0.01696269241465267	400.0	3	1.05	0.95				
	76	1	0.0	0.0	0.0	0.0	1	0.98752704955945	0.013803445072204087	400.0	3	1.05	0.95				
	77	1	0.0	0.0	0.0	0.0	1	1.0606104291017258	6.036015527897787	220.0	3	1.11	0.95				
	78	1	0.0	0.0	0.0	0.0	1	1.060499381103362	3.55302524618376	220.0	3	1.11	0.95				
	79	1	0.0	0.0	0.0	0.0	1	1.0610699822735998	6.9223415258372745	220.0	3	1.11	0.95				
	80	1	0.0	0.0	0.0	0.0	1	1.072077165301859	2.053932732006338	220.0	3	1.11	0.95				
	81	1	0.0	0.0	0.0	0.0	1	1.0720939465602146	2.0555451074645594	220.0	3	1.11	0.95				
	82	1	0.0	0.0	0.0	0.0	1	1.0855367115933379	11.55583720167969	220.0	3	1.11	0.95				
	83	2	9.594000000000001	13.782	0.0	0.0	1	1.0701267140821842	7.796508725374426	220.0	3	1.11	0.95				
	84	2	9.473999999999998	13.361999999999998	0.0	0.0	1	1.070222407875968	7.801123582220203	220.0	3	1.11	0.95				
	85	2	5.994	10.206000000000001	0.0	0.0	1	1.0592250103573293	5.200203737626375	220.0	3	1.11	0.95				
	86	2	5.994	9.995999999999999	0.0	0.0	1	1.059138642022707	5.200098455206819	220.0	3	1.11	0.95				
	87	1	6.654	9.732	0.0	0.0	1	1.052631322512361	4.659686312744653	220.0	3	1.11	0.95				
	88	1	0.0	0.0	0.0	0.0	1	1.0526512771405732	4.662878169398185	220.0	3	1.11	0.95				
	89	1	0.0	0.0	0.0	0.0	1	1.062658051890939	6.242053964320991	220.0	3	1.11	0.95				
	90	1	0.0	0.0	0.0	0.0	1	1.0684133845290442	6.4252942560154445	220.0	3	1.11	0.95				
	91	1	0.0	0.0	0.0	0.0	1	1.0740505070366302	8.578895478691733	220.0	3	1.11	0.95				
	92	1	0.0	0.0	0.0	0.0	1	0.9861955971704555	0.43316216081739956	400.0	3	1.05	0.95				
	93	2	5.994	9.834000000000001	0.0	0.0	1	1.067438736061429	8.004098485040123	220.0	3	1.11	0.95				
	94	1	0.0	0.0	0.0	0.0	1	1.0674423598048637	8.003100272953917	220.0	3	1.11	0.95				
	95	2	4.134	4.89	0.0	0.0	1	1.0690225981532702	6.731863477366379	220.0	3	1.11	0.95				
	96	1	0.0	0.0	0.0	0.0	1	1.0690273544956261	6.728705550466533	220.0	3	1.11	0.95				
	97	2	5.2139999999999995	3.1559999999999997	0.0	0.0	1	1.0963677007044523	7.566250813883734	220.0	3	1.11	0.95				
	98	1	0.0	0.0	0.0	0.0	1	1.0151634341718085	1.9182290907253041	400.0	3	1.05	0.95				
	99	1	0.0	0.0	0.0	0.0	1	1.0152077589713269	1.922525282781081	400.0	3	1.05	0.95				
	100	1	0.0	0.0	0.0	0.0	1	1.0010938365874338	0.9782067174937287	400.0	3	1.05	0.95				
	101	1	0.0	0.0	0.0	0.0	1	1.0011471618269363	0.977830052343273	400.0	3	1.05	0.95				
	102	1	0.0	0.0	0.0	0.0	1	1.0640500344322135	6.171977964115604	220.0	3	1.11	0.95				
	103	2	10.854	14.255999999999998	0.0	0.0	1	1.0603596709387906	5.0270657029731405	220.0	3	1.11	0.95				
	104	2	20.208	27.666	0.0	0.0	1	1.0605192528398426	5.032594588231588	220.0	3	1.11	0.95				
	105	2	20.268	37.77	0.0	0.0	1	0.9684874955025348	-0.22346968405403425	400.0	3	1.05	0.95				
	106	1	0.0	0.0	0.0	0.0	1	0.9686507068344427	-0.21011456566587947	400.0	3	1.05	0.95				
	107	1	0.0	0.0	0.0	0.0	1	1.0429240682787193	1.6953812090975984	220.0	3	1.11	0.95				
	108	1	0.0	0.0	0.0	0.0	1	1.0439225894513595	1.7055696598006773	220.0	3	1.11	0.95				
	109	2	0.6	13.416	0.0	0.0	1	1.089730595981631	13.162563553412014	220.0	3	1.11	0.95				
	110	2	0.6	13.308	0.0	0.0	1	1.0897368183174683	13.166793798580859	220.0	3	1.11	0.95				
	111	2	15.893999999999997	10.8	0.0	0.0	1	1.053325835812096	-4.317368886815884	220.0	4	1.11	0.95				
	112	1	0.0	0.0	0.0	0.0	1	1.0532684040793534	-4.314820134104287	220.0	4	1.11	0.95				
	113	1	0.0	0.0	0.0	0.0	1	1.047207098085028	-7.057846772527894	220.0	4	1.11	0.95				
	114	1	0.0	0.0	0.0	0.0	1	1.051799987623854	-6.693290961832363	220.0	4	1.11	0.95				
	115	1	0.0	0.0	0.0	0.0	1	0.9680323440456273	-4.152303429263687	400.0	4	1.05	0.95				
	116	1	0.0	0.0	0.0	0.0	1	0.9680715333726242	-4.144522569732759	400.0	4	1.05	0.95				
	117	1	0.0	0.0	0.0	0.0	1	1.0717437379030237	-6.879380971010651	220.0	4	1.11	0.95				
	118	1	0.0	0.0	0.0	0.0	1	1.0488049798439936	-5.713140619383823	220.0	4	1.11	0.95				
	119	1	0.0	0.0	0.0	0.0	1	1.0488049798439936	-5.713140619383823	220.0	4	1.11	0.95				
	120	1	0.0	0.0	0.0	0.0	1	1.046169490102051	-7.336274758579855	220.0	4	1.11	0.95				
	121	1	0.0	0.0	0.0	0.0	1	1.058754721034742	-6.707496617710743	220.0	4	1.11	0.95				
	122	1	0.0	0.0	0.0	0.0	1	1.058754721034742	-6.707496617710743	220.0	4	1.11	0.95				
	123	2	3.3000000000000003	4.2	0.0	0.0	1	1.06546394289512	-4.781673883007364	220.0	4	1.11	0.95				
	124	2	5.273999999999999	10.200000000000001	0.0	0.0	1	1.0654672754544432	-4.778434451216771	220.0	4	1.11	0.95				
	125	2	21.42	10.979999999999999	0.0	0.0	1	1.0613663623454235	-4.003479070776369	220.0	4	1.11	0.95				
	126	1	15.168000000000001	9.54	0.0	0.0	1	1.0613323319411503	-3.9927644505544224	220.0	4	1.11	0.95				
	127	2	15.425999999999998	9.18	0.0	0.0	1	1.0146953104894259	1.4755475271002163	400.0	4	1.05	0.95				
	128	1	0.0	0.0	0.0	0.0	1	1.0146647952082288	1.461348720425516	400.0	4	1.05	0.95				
	129	1	0.0	0.0	0.0	0.0	1	1.0555844409777626	-8.219958371003425	220.0	4	1.11	0.95				
	130	1	0.0	0.0	0.0	0.0	1	1.0374041683185038	-8.2742218922365	220.0	4	1.11	0.95				
	131	2	41.202	42.0	0.0	0.0	1	1.0567214679397199	-5.2949348679626995	220.0	4	1.11	0.95				
	132	2	19.8	27.0	0.0	0.0	1	1.0567321109216206	-5.293956744264782	220.0	4	1.11	0.95				
	133	1	0.0	0.0	0.0	0.0	1	0.9568064160133387	-4.709606795385802	400.0	4	1.05	0.95				
	134	1	0.0	0.0	0.0	0.0	1	0.9567713338807559	-4.710743325559761	400.0	4	1.05	0.95				
	135	1	0.0	0.0	0.0	0.0	1	1.0484843145647147	-5.781527866396662	220.0	4	1.11	0.95				
	136	1	0.0	0.0	0.0	0.0	1	1.0484843145647147	-5.781527866396662	220.0	4	1.11	0.95				
	137	1	0.0	0.0	0.0	0.0	1	0.9838070037040924	-1.9621106625322773	400.0	4	1.05	0.95				
	138	1	0.0	0.0	0.0	0.0	1	0.9838070037040924	-1.9621106625322773	400.0	4	1.05	0.95				
	139	2	19.92	13.56	0.0	0.0	1	1.0658810007596116	-4.856635400679697	220.0	4	1.11	0.95				
	140	2	17.538	11.76	0.0	0.0	1	1.0659000392254239	-4.854391334262999	220.0	4	1.11	0.95				
	141	1	0.0	0.0	0.0	0.0	1	1.0708962987056883	-7.702463262280311	220.0	4	1.11	0.95				
	142	1	0.0	0.0	0.0	0.0	1	1.0471724610653907	-5.8306693468608275	220.0	4	1.11	0.95				
	143	1	0.0	0.0	0.0	0.0	1	1.075723750917317	-6.992326749922701	220.0	4	1.11	0.95				
	144	1	0.0	0.0	0.0	0.0	1	1.0756700524351348	-6.9950393338152566	220.0	4	1.11	0.95				
	145	1	0.0	0.0	0.0	0.0	1	0.9718337747574028	-4.765827685087156	400.0	4	1.05	0.95				
	146	1	0.0	0.0	0.0	0.0	1	0.9718337747574028	-4.765827685087156	400.0	4	1.05	0.95				
	147	1	0.0	0.0	0.0	0.0	1	1.0465077337829196	-7.9091451539143005	220.0	4	1.11	0.95				
	148	1	0.0	0.0	0.0	0.0	1	1.0465436277575728	-7.907143404259856	220.0	4	1.11	0.95				
	149	1	0.0	0.0	0.0	0.0	1	1.073270977608427	-7.311052264415544	220.0	4	1.11	0.95				
	150	1	0.0	0.0	0.0	0.0	1	1.0496470182382667	-6.587923018296661	220.0	4	1.11	0.95				
	151	1	0.0	0.0	0.0	0.0	1	1.0496654481363468	-6.591383182710023	220.0	4	1.11	0.95				
	152	1	0.0	0.0	0.0	0.0	1	1.0490600473531877	-4.885355377343468	220.0	4	1.11	0.95				
	153	1	0.0	0.0	0.0	0.0	1	1.0490600473531877	-4.885355377343468	220.0	4	1.11	0.95				
	154	1	0.0	0.0	0.0	0.0	1	1.0368845283410095	-8.605123108624062	220.0	4	1.11	0.95				
	155	1	0.0	0.0	0.0	0.0	1	1.0594697395915804	-5.830517412463387	220.0	5	1.11	0.95				
	156	1	0.0	0.0	0.0	0.0	1	1.110000010904313	-2.052003612613843	220.0	5	1.11	0.95				
	157	1	0.0	0.0	0.0	0.0	1	1.0159783021148736	-0.43255041795740157	400.0	5	1.05	0.95				
	158	1	0.0	0.0	0.0	0.0	1	1.0159537226777697	-0.4324982434159603	400.0	5	1.05	0.95				
	159	1	0.0	0.0	0.0	0.0	1	1.01402264188321	-1.0929589006470508	400.0	5	1.05	0.95				
	160	1	0.0	0.0	0.0	0.0	1	1.014048251569858	-1.0916208432471637	400.0	5	1.05	0.95				
	161	1	0.0	0.0	0.0	0.0	1	1.067433841203228	-4.512137247720336	220.0	5	1.11	0.95				
	162	1	0.0	0.0	0.0	0.0	1	1.0674366370475346	-4.511108720169118	220.0	5	1.11	0.95				
	163	1	0.0	0.0	0.0	0.0	1	1.0919677449739467	-4.644005358977684	220.0	5	1.11	0.95				
	164	1	0.0	0.0	0.0	0.0	1	1.0919558422083286	-4.648196966631977	220.0	5	1.11	0.95				
	165	1	0.0	0.0	0.0	0.0	1	0.9993472130313801	-4.23361272127085	400.0	5	1.05	0.95				
	166	1	0.0	0.0	0.0	0.0	1	1.0687063076626413	-5.5371065199480425	220.0	5	1.11	0.95				
	167	1	0.0	0.0	0.0	0.0	1	1.0687414776372872	-5.535792323298855	220.0	5	1.11	0.95				
	168	1	0.0	0.0	0.0	0.0	1	1.0167706507769447	-3.4250135934274586	400.0	5	1.05	0.95				
	169	1	0.0	0.0	0.0	0.0	1	1.016765562908647	-3.4342781148431762	400.0	5	1.05	0.95				
	170	1	0.0	0.0	0.0	0.0	1	1.0389314129405256	-9.26832425952838	220.0	5	1.11	0.95				
	171	1	0.0	0.0	0.0	0.0	1	1.038947002369202	-9.26981418789295	220.0	5	1.11	0.95				
	172	1	0.0	0.0	0.0	0.0	1	1.0692631695228967	-6.310481847433205	220.0	5	1.11	0.95				
	173	1	0.0	0.0	0.0	0.0	1	1.0692270464353115	-6.312675379979629	220.0	5	1.11	0.95				
	174	1	0.0	0.0	0.0	0.0	1	1.0562873102686392	-6.691236033263624	220.0	5	1.11	0.95				
	175	1	0.0	0.0	0.0	0.0	1	1.056292408078373	-6.69137781792164	220.0	5	1.11	0.95				
	176	2	0.0	24.0	0.0	0.0	1	1.007912491519909	1.380470391593435	400.0	5	1.05	0.95				
	177	2	0.0	24.0	0.0	0.0	1	1.007915048786195	1.3762020161846025	400.0	5	1.05	0.95				
	178	1	0.0	0.0	0.0	0.0	1	1.0899885332677715	-3.8289476781125162	220.0	5	1.11	0.95				
	179	1	0.0	0.0	0.0	0.0	1	1.0900062044721655	-3.82508129062652	220.0	5	1.11	0.95				
	180	2	203.91	29.759999999999998	0.0	0.0	2	0.9509015763752203	-1.9887335826586026	400.0	6	1.05	0.95				
	181	2	0.0	0.0	0.0	0.0	3	1.054452039294955	6.46324393457402	220.0	6	1.11	0.95				
	182	2	0.0	0.0	0.0	0.0	5	0.9569881099902554	-4.383335673240389	400.0	6	1.05	0.95				
	183	1	89.99999999999999	0.0	0.0	0.0	3	1.0500000104826113	0.003403906174259176	400.0	6	1.05	0.95				
	184	2	190.40399999999997	30.18	0.0	0.0	2	1.0711031116834249	6.733380269853521	220.0	6	1.11	0.95				
	185	2	217.45799999999997	22.020000000000003	0.0	0.0	2	0.9506485850259553	-2.52972926719417	400.0	6	1.05	0.95				
	186	2	19.997999999999998	0.6	0.0	0.0	5	1.061178766857487	-4.0789719129801325	220.0	6	1.11	0.95				
	187	1	4.272	0.8999999999999999	0.0	0.0	1	1.048187529774639	-10.425171664679416	110.0	1	1.12	0.95				
	188	1	4.577999999999999	0.6	0.0	0.0	1	1.0199250718955077	-15.937845860957824	110.0	1	1.12	0.95				
	189	1	5.861999999999999	5.22	0.0	0.0	1	1.0142971591575167	-10.783136143791598	110.0	1	1.12	0.95				
	190	1	3.672	0.8999999999999999	0.0	0.0	1	1.0616775803293792	-1.0982917220939825	110.0	1	1.12	0.95				
	191	1	3.672	0.96	0.0	0.0	1	1.0423782412033442	-4.7154504548588685	110.0	1	1.12	0.95				
	192	2	18.336	7.199999999999999	0.0	0.0	1	1.080698717050004	-7.5474063610720075	110.0	1	1.12	0.95				
	193	1	9.168	1.7999999999999998	0.0	0.0	1	1.0811891882905658	-7.533529551055602	110.0	1	1.12	0.95				
	194	1	0.0	0.0	0.0	0.0	1	1.079587694981488	-7.80112273054339	110.0	1	1.12	0.95				
	195	1	4.884	1.2	0.0	0.0	1	1.058037939699519	-8.31645564264052	110.0	1	1.12	0.95				
	196	2	4.151999999999999	0.8999999999999999	0.0	0.0	1	1.0556864396523404	-10.237877871472634	110.0	1	1.12	0.95				
	197	1	4.151999999999999	0.8999999999999999	0.0	0.0	1	1.049911820631197	-6.84309955688809	110.0	1	1.12	0.95				
	198	2	7.392	1.02	0.0	0.0	1	1.059917983125817	-8.533055275843445	110.0	1	1.12	0.95				
	199	1	0.8579999999999999	0.3	0.0	0.0	1	1.0694629492528882	-3.6356532021020462	110.0	1	1.12	0.95				
	200	1	0.648	0.3	0.0	0.0	1	1.098673265103003	-7.786386635101044	110.0	1	1.12	0.95				
...
];

%% generator data
%    bus    Pg    Qg    Qmax    Qmin    Vg    mBase    status    Pmax    Pmin    Pc1    Pc2    Qc1min    Qc1max    Qc2min    Qc2max    ramp_agc    ramp_10    ramp_30    ramp_q    apf
mpc.gen = [
	10	-9.75415473365817e-7	2.185772916123494e-6	120.0	0.0	1.0	168.0	1	400.0	0.0	0.0	0.0	0.0	0.0	0.0	0.0	0.0	0.0	0.0	0.0	0.0				
	16	720.0000071903887	34.22485561289597	440.00000000000006	-40.0	1.0	823.0	1	720.0	0.0	0.0	0.0	0.0	0.0	0.0	0.0	0.0	0.0	0.0	0.0	0.0				
	17	-8.817397464838597e-7	-8.570671080344873	660.0	-60.0	1.0	1234.0	1	1080.0	0.0	0.0	0.0	0.0	0.0	0.0	0.0	0.0	0.0	0.0	0.0	0.0				
	18	-9.87588493522411e-7	-140.00000013947016	1540.0	-140.0	1.0	2879.0	1	2520.0	0.0	0.0	0.0	0.0	0.0	0.0	0.0	0.0	0.0	0.0	0.0	0.0				
	29	-9.931687277030789e-7	-4.5325128771263187e-7	240.0	0.0	1.0	511.0	1	400.0	0.0	0.0	0.0	0.0	0.0	0.0	0.0	0.0	0.0	0.0	0.0	0.0				
	30	-9.93889624164507e-7	-4.5366778843501186e-7	240.0	0.0	1.0	511.0	1	800.0	0.0	0.0	0.0	0.0	0.0	0.0	0.0	0.0	0.0	0.0	0.0	0.0				
	31	1000.0000099818939	-6.813652801246873e-7	350.0	0.0	1.0	420.0	1	1000.0	0.0	0.0	0.0	0.0	0.0	0.0	0.0	0.0	0.0	0.0	0.0	0.0				
	41	-9.488138983256866e-7	-8.309639668531769e-7	120.0	0.0	1.0	241.0	1	200.0	0.0	0.0	0.0	0.0	0.0	0.0	0.0	0.0	0.0	0.0	0.0	0.0				
	42	-9.920676677239613e-7	-8.307892668668357e-7	120.0	0.0	1.0	241.0	1	409.99999999999994	0.0	0.0	0.0	0.0	0.0	0.0	0.0	0.0	0.0	0.0	0.0	0.0				
	43	410.0000040766473	-8.876747000797519e-7	240.0	0.0	1.0	482.0	1	409.99999999999994	0.0	0.0	0.0	0.0	0.0	0.0	0.0	0.0	0.0	0.0	0.0	0.0				
	44	410.00000404429835	-8.877827857833584e-7	240.0	0.0	1.0	482.0	1	409.99999999999994	0.0	0.0	0.0	0.0	0.0	0.0	0.0	0.0	0.0	0.0	0.0	0.0				
	45	42.20000099553803	-4.92459706245645e-7	21.0	0.0	1.0	49.0	1	42.2	0.0	0.0	0.0	0.0	0.0	0.0	0.0	0.0	0.0	0.0	0.0	0.0				
	63	650.0000064792904	29.108466093969877	302.0	0.0	1.0	473.0	1	650.0	0.0	0.0	0.0	0.0	0.0	0.0	0.0	0.0	0.0	0.0	0.0	0.0				
	64	450.000004446863	2.0000170799403745	311.0	2.0	1.0	475.0	1	450.0	0.0	0.0	0.0	0.0	0.0	0.0	0.0	0.0	0.0	0.0	0.0	0.0				
	67	750.0000074613304	4.111291744362411	449.0	0.0	1.0	864.0	1	750.0	0.0	0.0	0.0	0.0	0.0	0.0	0.0	0.0	0.0	0.0	0.0	0.0				
	83	225.00000223675607	-88.99628562788145	190.0	-89.0	1.0	239.0	1	225.0	0.0	0.0	0.0	0.0	0.0	0.0	0.0	0.0	0.0	0.0	0.0	0.0				
	84	225.00000217241728	96.52505210179443	190.0	-89.0	1.0	251.0	1	225.0	0.0	0.0	0.0	0.0	0.0	0.0	0.0	0.0	0.0	0.0	0.0	0.0				
	85	-9.526969923092417e-7	87.78066677516713	125.0	-50.0	1.0	133.0	1	120.0	0.0	0.0	0.0	0.0	0.0	0.0	0.0	0.0	0.0	0.0	0.0	0.0				
	86	-9.857833514195477e-7	-49.99936542102535	125.0	-50.0	1.0	133.0	1	120.0	0.0	0.0	0.0	0.0	0.0	0.0	0.0	0.0	0.0	0.0	0.0	0.0				
	93	-9.305998789690201e-7	5.0000043580813545	90.0	5.0	1.0	123.0	1	120.0	0.0	0.0	0.0	0.0	0.0	0.0	0.0	0.0	0.0	0.0	0.0	0.0				
	95	-9.726588860045614e-7	27.000000142856322	68.0	27.0	1.0	105.0	1	110.00000000000001	0.0	0.0	0.0	0.0	0.0	0.0	0.0	0.0	0.0	0.0	0.0	0.0				
	97	87.60000099516064	26.999999822102588	68.0	27.0	1.0	105.0	1	87.6	0.0	0.0	0.0	0.0	0.0	0.0	0.0	0.0	0.0	0.0	0.0	0.0				
	103	-9.927994731430759e-7	-81.99868819310963	177.0	-82.0	1.0	239.0	1	400.0	0.0	0.0	0.0	0.0	0.0	0.0	0.0	0.0	0.0	0.0	0.0	0.0				
	104	-9.714608193301167e-7	139.1586404228883	379.0	-177.0	1.0	490.0	1	225.0	0.0	0.0	0.0	0.0	0.0	0.0	0.0	0.0	0.0	0.0	0.0	0.0				
	105	-9.559595876694217e-7	-165.000000215634	353.0	-165.0	1.0	502.0	1	430.0	0.0	0.0	0.0	0.0	0.0	0.0	0.0	0.0	0.0	0.0	0.0	0.0				
	109	250.00000249513533	23.287792560689752	65.0	0.0	1.0	277.0	1	250.0	0.0	0.0	0.0	0.0	0.0	0.0	0.0	0.0	0.0	0.0	0.0	0.0				
	110	250.00000249513525	23.067085757568993	65.0	0.0	1.0	280.0	1	250.0	0.0	0.0	0.0	0.0	0.0	0.0	0.0	0.0	0.0	0.0	0.0	0.0				
	111	-9.893567281710657e-7	2.4724275976613924e-6	270.0	0.0	1.0	401.0	1	360.0	0.0	0.0	0.0	0.0	0.0	0.0	0.0	0.0	0.0	0.0	0.0	0.0				
	123	-9.93006572116676e-7	1.129156703828769e-6	40.0	0.0	1.0	98.0	1	110.00000000000001	0.0	0.0	0.0	0.0	0.0	0.0	0.0	0.0	0.0	0.0	0.0	0.0				
	124	125.00000121524266	1.123465207781252e-6	90.0	0.0	1.0	132.0	1	125.0	0.0	0.0	0.0	0.0	0.0	0.0	0.0	0.0	0.0	0.0	0.0	0.0				
	125	-9.943404306008687e-7	10.59518009008205	360.0	0.0	1.0	654.0	1	860.0	0.0	0.0	0.0	0.0	0.0	0.0	0.0	0.0	0.0	0.0	0.0	0.0				
	127	690.0000068693824	4.1020192945064833e-7	360.0	0.0	1.0	540.0	1	690.0	0.0	0.0	0.0	0.0	0.0	0.0	0.0	0.0	0.0	0.0	0.0	0.0				
	131	-9.917018890635962e-7	0.00031294288091163484	360.0	0.0	1.0	696.0	1	1060.0	0.0	0.0	0.0	0.0	0.0	0.0	0.0	0.0	0.0	0.0	0.0	0.0				
	132	-9.931772677724742e-7	0.00031508050294808614	480.0	0.0	1.0	732.0	1	600.0	0.0	0.0	0.0	0.0	0.0	0.0	0.0	0.0	0.0	0.0	0.0	0.0				
	139	-9.915476322577038e-7	1.0903815044808979e-6	360.0	0.0	1.0	714.0	1	600.0	0.0	0.0	0.0	0.0	0.0	0.0	0.0	0.0	0.0	0.0	0.0	0.0				
	140	165.5743078367015	1.0918841146202645e-6	120.0	0.0	1.0	240.0	1	200.0	0.0	0.0	0.0	0.0	0.0	0.0	0.0	0.0	0.0	0.0	0.0	0.0				
	176	600.000005995467	-119.99953532974337	220.00000000000003	-120.0	1.0	430.0	1	600.0	0.0	0.0	0.0	0.0	0.0	0.0	0.0	0.0	0.0	0.0	0.0	0.0				
	177	200.000001995467	-51.389026863928834	220.00000000000003	-120.0	1.0	430.0	1	200.0	0.0	0.0	0.0	0.0	0.0	0.0	0.0	0.0	0.0	0.0	0.0	0.0				
	180	0.0	-79.5479571422639	99999.0	-99999.0	1.0	7485.0	1	0.0	0.0	0.0	0.0	0.0	0.0	0.0	0.0	0.0	0.0	0.0	0.0	0.0				
	181	175.00000174530197	-15.682539687628772	99999.0	-99999.0	1.0	210.0	1	175.0	0.0	0.0	0.0	0.0	0.0	0.0	0.0	0.0	0.0	0.0	0.0	0.0				
	182	307.5900030714293	-25.132412793822883	99999.0	-99999.0	1.0	13465.0	1	307.59	0.0	0.0	0.0	0.0	0.0	0.0	0.0	0.0	0.0	0.0	0.0	0.0				
	184	0.0	34.5319735506046	99999.0	-99999.0	1.0	8353.0	1	0.0	0.0	0.0	0.0	0.0	0.0	0.0	0.0	0.0	0.0	0.0	0.0	0.0				
	185	0.0	-68.70989943115792	99999.0	-99999.0	1.0	14254.0	1	0.0	0.0	0.0	0.0	0.0	0.0	0.0	0.0	0.0	0.0	0.0	0.0	0.0				
	186	0.0	-4.874425633635082	99999.0	-99999.0	1.0	7401.0	1	0.0	0.0	0.0	0.0	0.0	0.0	0.0	0.0	0.0	0.0	0.0	0.0	0.0				
	192	95.00000099555457	3.479054410838513e-7	50.0	0.0	1.0	114.0	1	95.0	0.0	0.0	0.0	0.0	0.0	0.0	0.0	0.0	0.0	0.0	0.0	0.0				
	196	0.9000009957131396	1.0000006747944827	1.0	0.0	1.0	1.0	1	0.9000000000000001	0.0	0.0	0.0	0.0	0.0	0.0	0.0	0.0	0.0	0.0	0.0	0.0				
	198	0.8000009956380706	3.3635507465648843e-6	1.0	0.0	1.0	1.0	1	0.8	0.0	0.0	0.0	0.0	0.0	0.0	0.0	0.0	0.0	0.0	0.0	0.0				
	205	15.000000995526955	5.220199678719694	10.0	0.0	1.0	18.0	1	15.0	0.0	0.0	0.0	0.0	0.0	0.0	0.0	0.0	0.0	0.0	0.0	0.0				
	213	11.000000995712913	6.277692259127756	8.0	0.0	1.0	13.0	1	11.0	0.0	0.0	0.0	0.0	0.0	0.0	0.0	0.0	0.0	0.0	0.0	0.0				
	264	2.500000995710945	1.5328124049544931e-6	2.0	0.0	1.0	3.0	1	2.5	0.0	0.0	0.0	0.0	0.0	0.0	0.0	0.0	0.0	0.0	0.0	0.0				
	269	6.000000995631691	7.241389566207267e-7	5.0	0.0	1.0	7.0	1	6.0	0.0	0.0	0.0	0.0	0.0	0.0	0.0	0.0	0.0	0.0	0.0	0.0				
	277	70.0000009955157	25.542656255415793	42.0	0.0	1.0	84.0	1	70.0	0.0	0.0	0.0	0.0	0.0	0.0	0.0	0.0	0.0	0.0	0.0	0.0				
	278	60.000000995534606	0.27313254103618834	40.0	0.0	1.0	72.0	1	60.0	0.0	0.0	0.0	0.0	0.0	0.0	0.0	0.0	0.0	0.0	0.0	0.0				
	279	60.0000009955105	12.249199160770452	40.0	0.0	1.0	72.0	1	60.0	0.0	0.0	0.0	0.0	0.0	0.0	0.0	0.0	0.0	0.0	0.0	0.0				
	281	120.0000011954948	23.171168243760647	90.0	0.0	1.0	144.0	1	120.0	0.0	0.0	0.0	0.0	0.0	0.0	0.0	0.0	0.0	0.0	0.0	0.0				
	282	40.00000099551706	15.15919539577302	40.0	0.0	1.0	48.0	1	40.0	0.0	0.0	0.0	0.0	0.0	0.0	0.0	0.0	0.0	0.0	0.0	0.0				
	289	2.5000009955063422	2.9999908429643574	3.0	0.0	1.0	3.0	1	2.5	0.0	0.0	0.0	0.0	0.0	0.0	0.0	0.0	0.0	0.0	0.0	0.0				
	294	2.0000009957795246	1.638057617188572e-5	1.0	0.0	1.0	2.0	1	2.0	0.0	0.0	0.0	0.0	0.0	0.0	0.0	0.0	0.0	0.0	0.0	0.0				
	314	1.5000009957663616	0.09438159816013875	1.0	0.0	1.0	2.0	1	1.5	0.0	0.0	0.0	0.0	0.0	0.0	0.0	0.0	0.0	0.0	0.0	0.0				
	328	44.00000099553624	3.9060739083627246e-8	21.0	0.0	1.0	53.0	1	44.0	0.0	0.0	0.0	0.0	0.0	0.0	0.0	0.0	0.0	0.0	0.0	0.0				
	329	44.0000009955909	8.781243023570987	21.0	0.0	1.0	53.0	1	44.0	0.0	0.0	0.0	0.0	0.0	0.0	0.0	0.0	0.0	0.0	0.0	0.0				
	330	44.0000009955172	-4.951780206021136e-7	21.0	0.0	1.0	53.0	1	44.0	0.0	0.0	0.0	0.0	0.0	0.0	0.0	0.0	0.0	0.0	0.0	0.0				
	331	43.00000099559773	4.4255086382301994e-6	21.0	0.0	1.0	52.0	1	43.0	0.0	0.0	0.0	0.0	0.0	0.0	0.0	0.0	0.0	0.0	0.0	0.0				
	334	1.5000009957220475	-2.729500089671314e-7	1.0	0.0	1.0	2.0	1	1.5	0.0	0.0	0.0	0.0	0.0	0.0	0.0	0.0	0.0	0.0	0.0	0.0				
	346	-9.87351778146881e-7	13.682707807461297	120.0	0.0	1.0	180.0	1	200.0	0.0	0.0	0.0	0.0	0.0	0.0	0.0	0.0	0.0	0.0	0.0	0.0				
	347	10.000000995753695	6.046961490583735e-7	15.0	0.0	1.0	12.0	1	10.0	0.0	0.0	0.0	0.0	0.0	0.0	0.0	0.0	0.0	0.0	0.0	0.0				
	359	1.5000009956194107	1.0695925138106878e-6	1.0	0.0	1.0	2.0	1	1.5	0.0	0.0	0.0	0.0	0.0	0.0	0.0	0.0	0.0	0.0	0.0	0.0				
	365	5.100000995580318	6.909716425097201e-6	3.0	0.0	1.0	6.0	1	5.1	0.0	0.0	0.0	0.0	0.0	0.0	0.0	0.0	0.0	0.0	0.0	0.0				
	382	8.000000995620551	4.999989689620401	5.0	0.0	1.0	10.0	1	8.0	0.0	0.0	0.0	0.0	0.0	0.0	0.0	0.0	0.0	0.0	0.0	0.0				
	383	8.00000099562172	4.9999974347237	5.0	0.0	1.0	10.0	1	8.0	0.0	0.0	0.0	0.0	0.0	0.0	0.0	0.0	0.0	0.0	0.0	0.0				
	385	6.000000995653224	3.9999675862934527	4.0	0.0	1.0	7.0	1	6.0	0.0	0.0	0.0	0.0	0.0	0.0	0.0	0.0	0.0	0.0	0.0	0.0				
	390	4.50000099555895	2.999998734807462	3.0	0.0	1.0	5.0	1	4.5	0.0	0.0	0.0	0.0	0.0	0.0	0.0	0.0	0.0	0.0	0.0	0.0				
	395	10.000000995637087	-3.903235345413828e-7	8.0	0.0	1.0	12.0	1	10.0	0.0	0.0	0.0	0.0	0.0	0.0	0.0	0.0	0.0	0.0	0.0	0.0				
	404	3.0000009955927354	2.9999999066681178	3.0	0.0	1.0	4.0	1	3.0	0.0	0.0	0.0	0.0	0.0	0.0	0.0	0.0	0.0	0.0	0.0	0.0				
	426	3.2000009958037374	1.35487799069277	2.0	0.0	1.0	4.0	1	3.2	0.0	0.0	0.0	0.0	0.0	0.0	0.0	0.0	0.0	0.0	0.0	0.0				
	444	1.000000995591194	1.2681020499005236e-6	1.0	0.0	1.0	1.0	1	1.0	0.0	0.0	0.0	0.0	0.0	0.0	0.0	0.0	0.0	0.0	0.0	0.0				
	451	4.5000009955892395	4.8363773581003574e-5	3.0	0.0	1.0	5.0	1	4.5	0.0	0.0	0.0	0.0	0.0	0.0	0.0	0.0	0.0	0.0	0.0	0.0				
	482	1.0000009955382052	1.637392214372685e-5	1.0	0.0	1.0	1.0	1	1.0	0.0	0.0	0.0	0.0	0.0	0.0	0.0	0.0	0.0	0.0	0.0	0.0				
	492	2.0000009956128615	2.8088510176588e-7	1.0	0.0	1.0	2.0	1	2.0	0.0	0.0	0.0	0.0	0.0	0.0	0.0	0.0	0.0	0.0	0.0	0.0				
	493	234.0000023354965	7.6032697066593355	130.0	0.0	1.0	281.0	1	234.0	0.0	0.0	0.0	0.0	0.0	0.0	0.0	0.0	0.0	0.0	0.0	0.0				
	494	234.000002335504	46.28884452599475	130.0	0.0	1.0	281.0	1	234.0	0.0	0.0	0.0	0.0	0.0	0.0	0.0	0.0	0.0	0.0	0.0	0.0				
	514	115.00000114561865	27.467228074392143	90.0	0.0	1.0	138.0	1	114.99999999999999	0.0	0.0	0.0	0.0	0.0	0.0	0.0	0.0	0.0	0.0	0.0	0.0				
	515	115.00000114561537	47.15078731118294	90.0	0.0	1.0	138.0	1	114.99999999999999	0.0	0.0	0.0	0.0	0.0	0.0	0.0	0.0	0.0	0.0	0.0	0.0				
	525	6.000000995641839	3.9999976755573945	4.0	0.0	1.0	7.0	1	6.0	0.0	0.0	0.0	0.0	0.0	0.0	0.0	0.0	0.0	0.0	0.0	0.0				
	536	6.00000099569073	4.178115788574782	6.0	0.0	1.0	7.0	1	6.0	0.0	0.0	0.0	0.0	0.0	0.0	0.0	0.0	0.0	0.0	0.0	0.0				
	537	3.5000009957185925	2.77178388046927e-6	3.0	0.0	1.0	4.0	1	3.5000000000000004	0.0	0.0	0.0	0.0	0.0	0.0	0.0	0.0	0.0	0.0	0.0	0.0				
	556	2.700000995610431	-7.062642012019941e-7	1.0	0.0	1.0	3.0	1	2.7	0.0	0.0	0.0	0.0	0.0	0.0	0.0	0.0	0.0	0.0	0.0	0.0				
	580	1.6000009955294312	-6.707775094973354e-7	1.0	0.0	1.0	2.0	1	1.6	0.0	0.0	0.0	0.0	0.0	0.0	0.0	0.0	0.0	0.0	0.0	0.0				
	584	2.700000995551365	-4.2472385069067823e-7	2.0	0.0	1.0	3.0	1	2.7	0.0	0.0	0.0	0.0	0.0	0.0	0.0	0.0	0.0	0.0	0.0	0.0				
	585	4.000000995549583	-4.256002431008739e-7	2.0	0.0	1.0	5.0	1	4.0	0.0	0.0	0.0	0.0	0.0	0.0	0.0	0.0	0.0	0.0	0.0	0.0				
	607	0.8000009954944601	0.0	0.0	0.0	1.0	1.0	1	0.8	0.0	0.0	0.0	0.0	0.0	0.0	0.0	0.0	0.0	0.0	0.0	0.0				
	612	-9.906481168200564e-7	22.438343125099475	120.0	0.0	1.0	256.0	1	200.0	0.0	0.0	0.0	0.0	0.0	0.0	0.0	0.0	0.0	0.0	0.0	0.0				
	613	-9.862123360176857e-7	0.001251401667342008	120.0	0.0	1.0	256.0	1	200.0	0.0	0.0	0.0	0.0	0.0	0.0	0.0	0.0	0.0	0.0	0.0	0.0				
	615	1.4000009955245043	-5.915100881117161e-7	1.0	0.0	1.0	2.0	1	1.4	0.0	0.0	0.0	0.0	0.0	0.0	0.0	0.0	0.0	0.0	0.0	0.0				
	623	7.600000995567932	-4.748302499888473e-7	5.0	0.0	1.0	9.0	1	7.6	0.0	0.0	0.0	0.0	0.0	0.0	0.0	0.0	0.0	0.0	0.0	0.0				
	639	9.60000099553517	-6.612766939700742e-7	4.0	0.0	1.0	12.0	1	9.6	0.0	0.0	0.0	0.0	0.0	0.0	0.0	0.0	0.0	0.0	0.0	0.0				
	651	4.700000995562529	-6.478702207608095e-7	2.0	0.0	1.0	6.0	1	4.7	0.0	0.0	0.0	0.0	0.0	0.0	0.0	0.0	0.0	0.0	0.0	0.0				
	654	1.4000009955020287	-8.240126263968638e-7	1.0	0.0	1.0	2.0	1	1.4	0.0	0.0	0.0	0.0	0.0	0.0	0.0	0.0	0.0	0.0	0.0	0.0				
	664	6.200000995501792	-7.345147010555073e-7	6.0	0.0	1.0	7.0	1	6.2	0.0	0.0	0.0	0.0	0.0	0.0	0.0	0.0	0.0	0.0	0.0	0.0				
	670	2.7000009955000364	-8.906341517095385e-7	2.0	0.0	1.0	3.0	1	2.7	0.0	0.0	0.0	0.0	0.0	0.0	0.0	0.0	0.0	0.0	0.0	0.0				
	674	1.0000009956139317	0.0	0.0	0.0	1.0	1.0	1	1.0	0.0	0.0	0.0	0.0	0.0	0.0	0.0	0.0	0.0	0.0	0.0	0.0				
	688	-9.90983355909912e-7	-7.662877155880813e-7	120.0	0.0	1.0	242.0	1	202.0	0.0	0.0	0.0	0.0	0.0	0.0	0.0	0.0	0.0	0.0	0.0	0.0				
	692	1.400000995610306	8.857322124746207e-8	1.0	0.0	1.0	2.0	1	1.4	0.0	0.0	0.0	0.0	0.0	0.0	0.0	0.0	0.0	0.0	0.0	0.0				
	699	3.800000995497844	-8.927108328817506e-7	2.0	0.0	1.0	5.0	1	3.8	0.0	0.0	0.0	0.0	0.0	0.0	0.0	0.0	0.0	0.0	0.0	0.0				
	712	1.200000995575244	-5.24490879445996e-7	1.0	0.0	1.0	1.0	1	1.2	0.0	0.0	0.0	0.0	0.0	0.0	0.0	0.0	0.0	0.0	0.0	0.0				
	730	6.9000009954553825	-8.974208168825523e-7	3.0	0.0	1.0	8.0	1	6.9	0.0	0.0	0.0	0.0	0.0	0.0	0.0	0.0	0.0	0.0	0.0	0.0				
	732	1.1000009955731784	-8.541435455682974e-7	1.0	0.0	1.0	1.0	1	1.1	0.0	0.0	0.0	0.0	0.0	0.0	0.0	0.0	0.0	0.0	0.0	0.0				
	735	4.1000009955443275	-6.492474624110272e-7	2.0	0.0	1.0	5.0	1	4.1	0.0	0.0	0.0	0.0	0.0	0.0	0.0	0.0	0.0	0.0	0.0	0.0				
	740	4.000000995324638	-9.135903148417162e-7	1.0	0.0	1.0	5.0	1	4.0	0.0	0.0	0.0	0.0	0.0	0.0	0.0	0.0	0.0	0.0	0.0	0.0				
	744	134.0000013352158	-9.016328932787327e-7	60.0	0.0	1.0	161.0	1	134.0	0.0	0.0	0.0	0.0	0.0	0.0	0.0	0.0	0.0	0.0	0.0	0.0				
	754	-9.249244060738259e-7	-8.063353789059177e-7	30.0	0.0	1.0	54.0	1	80.0	0.0	0.0	0.0	0.0	0.0	0.0	0.0	0.0	0.0	0.0	0.0	0.0				
	755	-9.921752027755654e-7	-7.885629603439451e-7	80.0	0.0	1.0	110.0	1	250.0	0.0	0.0	0.0	0.0	0.0	0.0	0.0	0.0	0.0	0.0	0.0	0.0				
	760	3.100000995547307	-6.051459646654752e-7	2.0	0.0	1.0	4.0	1	3.1	0.0	0.0	0.0	0.0	0.0	0.0	0.0	0.0	0.0	0.0	0.0	0.0				
	766	2.1000009955401406	-4.76508157427629e-7	1.0	0.0	1.0	3.0	1	2.1	0.0	0.0	0.0	0.0	0.0	0.0	0.0	0.0	0.0	0.0	0.0	0.0				
	784	0.7000009955916886	0.0	0.0	0.0	1.0	1.0	1	0.7	0.0	0.0	0.0	0.0	0.0	0.0	0.0	0.0	0.0	0.0	0.0	0.0				
	790	49.80000099541313	35.0	35.0	35.0	1.0	60.0	1	49.8	0.0	0.0	0.0	0.0	0.0	0.0	0.0	0.0	0.0	0.0	0.0	0.0				
	795	1.8900009952444348	1.0	1.0	1.0	1.0	2.0	1	1.8900000000000001	0.0	0.0	0.0	0.0	0.0	0.0	0.0	0.0	0.0	0.0	0.0	0.0				
	798	2.9900009953467666	3.0	3.0	3.0	1.0	4.0	1	2.99	0.0	0.0	0.0	0.0	0.0	0.0	0.0	0.0	0.0	0.0	0.0	0.0				
	814	44.920000995279594	9.658272631882351	42.0	0.0	1.0	54.0	1	44.92	0.0	0.0	0.0	0.0	0.0	0.0	0.0	0.0	0.0	0.0	0.0	0.0				
	834	-9.79297552333336e-7	45.630733085057415	83.0	0.0	1.0	110.0	1	55.00000000000001	0.0	0.0	0.0	0.0	0.0	0.0	0.0	0.0	0.0	0.0	0.0	0.0				
	878	2.990000995338419	0.0	0.0	0.0	1.0	4.0	1	2.99	0.0	0.0	0.0	0.0	0.0	0.0	0.0	0.0	0.0	0.0	0.0	0.0				
	884	2.4900009954159517	0.0	0.0	0.0	1.0	3.0	1	2.49	0.0	0.0	0.0	0.0	0.0	0.0	0.0	0.0	0.0	0.0	0.0	0.0				
	892	31.870000995433024	19.655890388455777	42.0	6.0	1.0	38.0	1	31.869999999999997	0.0	0.0	0.0	0.0	0.0	0.0	0.0	0.0	0.0	0.0	0.0	0.0				
	895	8.960000995329732	7.000000000000001	7.000000000000001	7.000000000000001	1.0	11.0	1	8.96	0.0	0.0	0.0	0.0	0.0	0.0	0.0	0.0	0.0	0.0	0.0	0.0				
	901	3.680000995240076	2.0	2.0	2.0	1.0	4.0	1	3.6799999999999997	0.0	0.0	0.0	0.0	0.0	0.0	0.0	0.0	0.0	0.0	0.0	0.0				
	910	4.580000995284379	3.0	3.0	3.0	1.0	6.0	1	4.58	0.0	0.0	0.0	0.0	0.0	0.0	0.0	0.0	0.0	0.0	0.0	0.0				
	911	370.00000356540863	82.49997811059107	224.00000000000003	0.0	1.0	415.0	1	370.0	0.0	0.0	0.0	0.0	0.0	0.0	0.0	0.0	0.0	0.0	0.0	0.0				
	912	-9.883706345150802e-7	56.63656846382028	224.00000000000003	0.0	1.0	415.0	1	370.0	0.0	0.0	0.0	0.0	0.0	0.0	0.0	0.0	0.0	0.0	0.0	0.0				
	914	15.93000099536532	10.0	10.0	10.0	1.0	19.0	1	15.93	0.0	0.0	0.0	0.0	0.0	0.0	0.0	0.0	0.0	0.0	0.0	0.0				
	917	2.090000995363206	0.0	0.0	0.0	1.0	3.0	1	2.09	0.0	0.0	0.0	0.0	0.0	0.0	0.0	0.0	0.0	0.0	0.0	0.0				
	919	21.910000994734116	12.0	12.0	12.0	1.0	26.0	1	21.91	0.0	0.0	0.0	0.0	0.0	0.0	0.0	0.0	0.0	0.0	0.0	0.0				
	920	1.9900009951398485	0.0	0.0	0.0	1.0	2.0	1	1.9900000000000002	0.0	0.0	0.0	0.0	0.0	0.0	0.0	0.0	0.0	0.0	0.0	0.0				
	929	63.73000099516681	29.000000812031868	50.0	28.999999999999996	1.0	77.0	1	63.73	0.0	0.0	0.0	0.0	0.0	0.0	0.0	0.0	0.0	0.0	0.0	0.0				
	959	2.490000995484811	1.0	1.0	1.0	1.0	3.0	1	2.49	0.0	0.0	0.0	0.0	0.0	0.0	0.0	0.0	0.0	0.0	0.0	0.0				
	968	0.7000009954999553	0.0	0.0	0.0	1.0	1.0	1	0.7	0.0	0.0	0.0	0.0	0.0	0.0	0.0	0.0	0.0	0.0	0.0	0.0				
	993	3.980000995562923	1.0	1.0	1.0	1.0	5.0	1	3.9800000000000004	0.0	0.0	0.0	0.0	0.0	0.0	0.0	0.0	0.0	0.0	0.0	0.0				
	994	1.9900009955629252	1.0	1.0	1.0	1.0	2.0	1	1.9900000000000002	0.0	0.0	0.0	0.0	0.0	0.0	0.0	0.0	0.0	0.0	0.0	0.0				
	995	-9.92086488298666e-7	37.53808247188225	38.0	0.0	1.0	60.0	1	100.0	0.0	0.0	0.0	0.0	0.0	0.0	0.0	0.0	0.0	0.0	0.0	0.0				
	996	-9.907373334551327e-7	17.692560323324216	38.0	0.0	1.0	60.0	1	50.0	0.0	0.0	0.0	0.0	0.0	0.0	0.0	0.0	0.0	0.0	0.0	0.0				
	997	-9.91967687657411e-7	26.605107507485286	38.0	0.0	1.0	60.0	1	50.0	0.0	0.0	0.0	0.0	0.0	0.0	0.0	0.0	0.0	0.0	0.0	0.0				
	1004	4.280000995480818	3.0	3.0	3.0	1.0	5.0	1	4.28	0.0	0.0	0.0	0.0	0.0	0.0	0.0	0.0	0.0	0.0	0.0	0.0				
	1024	0.10000099546994885	0.0	0.0	0.0	1.0	0.0	1	0.1	0.0	0.0	0.0	0.0	0.0	0.0	0.0	0.0	0.0	0.0	0.0	0.0				
	1027	24.90000099530217	13.0	13.0	13.0	1.0	30.0	1	24.9	0.0	0.0	0.0	0.0	0.0	0.0	0.0	0.0	0.0	0.0	0.0	0.0				
	1028	2.990000995303722	3.0	3.0	3.0	1.0	4.0	1	2.99	0.0	0.0	0.0	0.0	0.0	0.0	0.0	0.0	0.0	0.0	0.0	0.0				
	1029	24.900000995295702	14.000000000000002	14.000000000000002	14.000000000000002	1.0	30.0	1	24.9	0.0	0.0	0.0	0.0	0.0	0.0	0.0	0.0	0.0	0.0	0.0	0.0				
	1053	59.76000099528495	15.405391905853854	53.0	0.0	1.0	72.0	1	59.760000000000005	0.0	0.0	0.0	0.0	0.0	0.0	0.0	0.0	0.0	0.0	0.0	0.0				
	1054	29.88000099543427	23.352732357478377	31.0	0.0	1.0	36.0	1	29.880000000000003	0.0	0.0	0.0	0.0	0.0	0.0	0.0	0.0	0.0	0.0	0.0	0.0				
	1105	7.970000995391384	10.0	10.0	10.0	1.0	10.0	1	7.969999999999999	0.0	0.0	0.0	0.0	0.0	0.0	0.0	0.0	0.0	0.0	0.0	0.0				
	1106	22.91000099538317	13.0	13.0	13.0	1.0	28.0	1	22.91	0.0	0.0	0.0	0.0	0.0	0.0	0.0	0.0	0.0	0.0	0.0	0.0				
	1107	10.560000995226877	3.0	3.0	3.0	1.0	13.0	1	10.56	0.0	0.0	0.0	0.0	0.0	0.0	0.0	0.0	0.0	0.0	0.0	0.0				
	1138	44.82000099516575	28.827748270135118	41.0	0.0	1.0	54.0	1	44.82	0.0	0.0	0.0	0.0	0.0	0.0	0.0	0.0	0.0	0.0	0.0	0.0				
	1140	230.00000067291407	47.02332392391524	199.0	-87.0	1.0	252.0	1	229.99999999999997	0.0	0.0	0.0	0.0	0.0	0.0	0.0	0.0	0.0	0.0	0.0	0.0				
	1141	-9.898308393872442e-7	46.47640134822681	190.0	-89.0	1.0	251.0	1	225.0	0.0	0.0	0.0	0.0	0.0	0.0	0.0	0.0	0.0	0.0	0.0	0.0				
	1175	37.84000099542718	20.0	20.0	20.0	1.0	45.0	1	37.84	0.0	0.0	0.0	0.0	0.0	0.0	0.0	0.0	0.0	0.0	0.0	0.0				
	1182	-9.92870769507499e-7	-4.387847404029033	125.0	-50.0	1.0	133.0	1	120.0	0.0	0.0	0.0	0.0	0.0	0.0	0.0	0.0	0.0	0.0	0.0	0.0				
	1183	120.0000011818628	-5.551319843397887	125.0	-50.0	1.0	133.0	1	120.0	0.0	0.0	0.0	0.0	0.0	0.0	0.0	0.0	0.0	0.0	0.0	0.0				
	1184	-9.89736924616256e-7	59.0375560528134	125.0	-50.0	1.0	133.0	1	120.0	0.0	0.0	0.0	0.0	0.0	0.0	0.0	0.0	0.0	0.0	0.0	0.0				
	1191	106.5600010609232	14.293642566179408	129.0	-47.0	1.0	128.0	1	106.56000000000002	0.0	0.0	0.0	0.0	0.0	0.0	0.0	0.0	0.0	0.0	0.0	0.0				
	1192	250.00000248517327	55.25398288261404	125.0	-50.0	1.0	123.0	1	250.0	0.0	0.0	0.0	0.0	0.0	0.0	0.0	0.0	0.0	0.0	0.0	0.0				
	1201	99.59000099527336	16.54103930729929	90.0	0.0	1.0	120.0	1	99.59	0.0	0.0	0.0	0.0	0.0	0.0	0.0	0.0	0.0	0.0	0.0	0.0				
	1202	99.59000099527333	0.6862779715560201	90.0	0.0	1.0	120.0	1	99.59	0.0	0.0	0.0	0.0	0.0	0.0	0.0	0.0	0.0	0.0	0.0	0.0				
	1203	99.59000099529436	3.1029421870625683e-5	90.0	0.0	1.0	120.0	1	99.59	0.0	0.0	0.0	0.0	0.0	0.0	0.0	0.0	0.0	0.0	0.0	0.0				
	1232	51.790000995416754	4.728857286075459	41.0	0.0	1.0	62.0	1	51.790000000000006	0.0	0.0	0.0	0.0	0.0	0.0	0.0	0.0	0.0	0.0	0.0	0.0				
	1233	14.94000099545797	1.314829237407114	41.0	0.0	1.0	18.0	1	14.940000000000001	0.0	0.0	0.0	0.0	0.0	0.0	0.0	0.0	0.0	0.0	0.0	0.0				
	1244	18.92000099535565	20.0	20.0	20.0	1.0	23.0	1	18.92	0.0	0.0	0.0	0.0	0.0	0.0	0.0	0.0	0.0	0.0	0.0	0.0				
	1247	15.93000099535744	12.0	12.0	12.0	1.0	19.0	1	15.93	0.0	0.0	0.0	0.0	0.0	0.0	0.0	0.0	0.0	0.0	0.0	0.0				
	1250	197.19000196718065	29.889385773996054	151.0	0.0	1.0	237.0	1	197.19	0.0	0.0	0.0	0.0	0.0	0.0	0.0	0.0	0.0	0.0	0.0	0.0				
	1268	0.5000009954061173	0.0	0.0	0.0	1.0	1.0	1	0.5	0.0	0.0	0.0	0.0	0.0	0.0	0.0	0.0	0.0	0.0	0.0	0.0				
	1316	1.0000009954195266	0.0	0.0	0.0	1.0	1.0	1	1.0	0.0	0.0	0.0	0.0	0.0	0.0	0.0	0.0	0.0	0.0	0.0	0.0				
	1325	1.390000995303169	0.0	0.0	0.0	1.0	2.0	1	1.39	0.0	0.0	0.0	0.0	0.0	0.0	0.0	0.0	0.0	0.0	0.0	0.0				
	1349	1.4900009956783422	0.0	0.0	0.0	1.0	2.0	1	1.49	0.0	0.0	0.0	0.0	0.0	0.0	0.0	0.0	0.0	0.0	0.0	0.0				
	1356	1.0000009953709057	2.0	2.0	2.0	1.0	1.0	1	1.0	0.0	0.0	0.0	0.0	0.0	0.0	0.0	0.0	0.0	0.0	0.0	0.0				
	1359	0.8000009954901901	1.0	1.0	1.0	1.0	1.0	1	0.8	0.0	0.0	0.0	0.0	0.0	0.0	0.0	0.0	0.0	0.0	0.0	0.0				
	1393	12.750000995437938	-8.393973833338385e-7	11.0	0.0	1.0	15.0	1	12.75	0.0	0.0	0.0	0.0	0.0	0.0	0.0	0.0	0.0	0.0	0.0	0.0				
	1403	4.280000995293799	1.0	1.0	1.0	1.0	5.0	1	4.28	0.0	0.0	0.0	0.0	0.0	0.0	0.0	0.0	0.0	0.0	0.0	0.0				
	1416	322.19396104746363	24.927673250507326	180.0	10.0	1.0	246.0	1	371.0	0.0	0.0	0.0	0.0	0.0	0.0	0.0	0.0	0.0	0.0	0.0	0.0				
	1417	-9.805943246423906e-7	14.98046271809842	120.0	5.0	1.0	123.0	1	120.0	0.0	0.0	0.0	0.0	0.0	0.0	0.0	0.0	0.0	0.0	0.0	0.0				
	1418	-9.862136421958166e-7	5.00000398396238	90.0	5.0	1.0	123.0	1	20.0	0.0	0.0	0.0	0.0	0.0	0.0	0.0	0.0	0.0	0.0	0.0	0.0				
	1426	-9.844565731431272e-7	27.000000119782296	68.0	27.0	1.0	106.0	1	495.0	0.0	0.0	0.0	0.0	0.0	0.0	0.0	0.0	0.0	0.0	0.0	0.0				
	1429	0.2000009953982102	0.0	0.0	0.0	1.0	0.0	1	0.2	0.0	0.0	0.0	0.0	0.0	0.0	0.0	0.0	0.0	0.0	0.0	0.0				
	1469	0.6000009954724534	0.0	0.0	0.0	1.0	1.0	1	0.6	0.0	0.0	0.0	0.0	0.0	0.0	0.0	0.0	0.0	0.0	0.0	0.0				
	1475	2.0900009953239636	2.0	2.0	2.0	1.0	3.0	1	2.09	0.0	0.0	0.0	0.0	0.0	0.0	0.0	0.0	0.0	0.0	0.0	0.0				
	1504	31.170000995426488	2.0	2.0	2.0	1.0	37.0	1	31.17	0.0	0.0	0.0	0.0	0.0	0.0	0.0	0.0	0.0	0.0	0.0	0.0				
	1505	48.800000995407906	4.0	4.0	4.0	1.0	59.0	1	48.8	0.0	0.0	0.0	0.0	0.0	0.0	0.0	0.0	0.0	0.0	0.0	0.0				
	1514	2.2900009934596532	1.0	1.0	1.0	1.0	3.0	1	2.29	0.0	0.0	0.0	0.0	0.0	0.0	0.0	0.0	0.0	0.0	0.0	0.0				
	1534	0.30000099536984126	0.0	0.0	0.0	1.0	0.0	1	0.3	0.0	0.0	0.0	0.0	0.0	0.0	0.0	0.0	0.0	0.0	0.0	0.0				
	1536	-9.916259987159318e-7	37.49604983272265	190.0	-89.0	1.0	251.0	1	225.0	0.0	0.0	0.0	0.0	0.0	0.0	0.0	0.0	0.0	0.0	0.0	0.0				
	1537	225.00000223090902	35.97428153026704	202.99999999999997	-95.0	1.0	255.0	1	225.0	0.0	0.0	0.0	0.0	0.0	0.0	0.0	0.0	0.0	0.0	0.0	0.0				
	1538	215.00000202149727	32.79414867741332	190.0	-89.0	1.0	255.0	1	215.0	0.0	0.0	0.0	0.0	0.0	0.0	0.0	0.0	0.0	0.0	0.0	0.0				
	1542	8.960000995407	3.0	3.0	3.0	1.0	11.0	1	8.96	0.0	0.0	0.0	0.0	0.0	0.0	0.0	0.0	0.0	0.0	0.0	0.0				
	1543	1.2000009953747663	0.0	0.0	0.0	1.0	1.0	1	1.2	0.0	0.0	0.0	0.0	0.0	0.0	0.0	0.0	0.0	0.0	0.0	0.0				
	1550	1.790000995331914	1.0	1.0	1.0	1.0	2.0	1	1.79	0.0	0.0	0.0	0.0	0.0	0.0	0.0	0.0	0.0	0.0	0.0	0.0				
	1566	54.77000099539268	20.000007095202964	47.0	20.0	1.0	66.0	1	54.77000000000001	0.0	0.0	0.0	0.0	0.0	0.0	0.0	0.0	0.0	0.0	0.0	0.0				
	1587	63.740000995338434	27.0	27.0	27.0	1.0	77.0	1	63.739999999999995	0.0	0.0	0.0	0.0	0.0	0.0	0.0	0.0	0.0	0.0	0.0	0.0				
	1600	17.430000995207916	3.0	3.0	3.0	1.0	21.0	1	17.43	0.0	0.0	0.0	0.0	0.0	0.0	0.0	0.0	0.0	0.0	0.0	0.0				
	1602	-9.861000267990647e-7	8.146725674336246	90.0	0.0	1.0	144.0	1	120.0	0.0	0.0	0.0	0.0	0.0	0.0	0.0	0.0	0.0	0.0	0.0	0.0				
	1603	-9.624469002884513e-7	43.050306671179904	90.0	0.0	1.0	144.0	1	120.0	0.0	0.0	0.0	0.0	0.0	0.0	0.0	0.0	0.0	0.0	0.0	0.0				
	1609	0.3000009957288435	0.0	0.0	0.0	1.0	0.0	1	0.3	0.0	0.0	0.0	0.0	0.0	0.0	0.0	0.0	0.0	0.0	0.0	0.0				
	1617	2.0000009955586546	0.0	0.0	0.0	1.0	2.0	1	2.0	0.0	0.0	0.0	0.0	0.0	0.0	0.0	0.0	0.0	0.0	0.0	0.0				
	1620	1.6000009955848378	0.0	0.0	0.0	1.0	2.0	1	1.6	0.0	0.0	0.0	0.0	0.0	0.0	0.0	0.0	0.0	0.0	0.0	0.0				
...
];

%% branch data
%    f_bus    t_bus    r    x    b    rateA    rateB    rateC    ratio    angle    status    angmin    angmax
mpc.branch = [
	16	1	0.00155	0.01169	0.0182	160.0	160.0	160.0	0	0	1	-60.0001403060998	60.0001403060998	71.38746620293207	-2.625471228239559	-71.31493028864537	1.1911454040614702				
	355	1	0.00157	0.06612	0.0	160.0	160.0	160.0	1.0099	0.0	1	-60.0001403060998	60.0001403060998	-71.24150660542504	4.283358101213907	71.31493028864537	-1.1911454040614702				
	17	2	0.00155	0.01169	0.0182	160.0	160.0	160.0	0	0	1	-60.0001403060998	60.0001403060998	67.53741412721048	3.343105012683588	-67.47009295026781	-4.7517150037305305				
	354	2	0.00157	0.06612	0.0	160.0	160.0	160.0	1.022	0.0	1	-60.0001403060998	60.0001403060998	-67.40178100710477	-1.874781448355113	67.47009295026781	4.7517150037305305				
	10	3	0.01068	0.07895	0.1226	274.0	274.0	274.0	0	0	1	-60.0001403060998	60.0001403060998	50.49597755656169	-4.219416322550952	-50.242542975798145	-7.030238666983644				
	219	3	0.00165	0.06736	0.0	160.0	160.0	160.0	1.027	0.0	1	-60.0001403060998	60.0001403060998	-18.82023360913664	-9.698255719366797	18.827277648151195	9.985823275742884				
	220	3	0.00165	0.06736	0.0	160.0	160.0	160.0	0.9955	0.0	1	-60.0001403060998	60.0001403060998	-31.39982347382307	3.585986592745206	31.415265327646953	-2.955584608759241				
	7	4	0.01674	0.09711	0.14423	377.0	377.0	377.0	0	0	1	-60.0001403060998	60.0001403060998	-73.34062959275171	10.27755186178979	74.22956796839387	-20.574138100385728				
	11	4	0.00293	0.01599	0.02478	335.0	335.0	335.0	0	0	1	-60.0001403060998	60.0001403060998	58.090656934776405	0.7484683036777049	-57.998373188173225	-2.898252647102293				
	14	4	0.00442	0.03223	0.04985	463.99999999999994	463.99999999999994	463.99999999999994	0	0	1	-60.0001403060998	60.0001403060998	-11.128175524154837	-40.73223230706482	11.195039560321753	35.955976875438935				
	16	4	0.00888	0.06665	0.08896	377.0	377.0	377.0	0	0	1	-60.0001403060998	60.0001403060998	149.63350134775996	-2.233935631470201	-147.80812260509364	6.33421088761653				
	22	4	0.00783	0.043	0.04962	350.0	350.0	350.0	0	0	1	-60.0001403060998	60.0001403060998	-57.12530662430959	23.692754503521428	57.41185046868698	-27.45484515512268				
	245	4	0.00165	0.06901	0.0	160.0	160.0	160.0	1.0594	0.0	1	-60.0001403060998	60.0001403060998	-39.19928941217468	-12.879868760557422	39.22606938390114	13.99992079015935				
	246	4	0.00165	0.06901	0.0	160.0	160.0	160.0	1.0448	0.0	1	-60.0001403060998	60.0001403060998	-23.734820852741162	5.745462385093351	23.743968411963117	-5.36287265060411				
	5	6	0.00064	0.0305	0.0	400.0	400.0	400.0	1.0435	-0.6	1	-60.0001403060998	60.0001403060998	-167.72379011926228	-31.516378261506418	167.91193641416226	40.48272512783452				
	7	5	0.00525	0.03988	0.06195	381.0	381.0	381.0	0	0	1	-60.0001403060998	60.0001403060998	-26.504598932125717	-5.573865867297042	26.539182681708983	-0.8319019107600887				
	10	5	0.01459	0.11219	0.16553	381.0	381.0	381.0	0	0	1	-60.0001403060998	60.0001403060998	-85.26016990365329	5.309298662003078	86.27240889538518	-15.367252395013953				
	309	5	0.00165	0.0686	0.0	160.0	160.0	160.0	1.0646	0.0	1	-60.0001403060998	60.0001403060998	-27.48812498494927	-31.68323637692017	27.516212018233222	32.850976063755674				
	309	5	0.00165	0.0686	0.0	160.0	160.0	160.0	1.0523	0.0	1	-60.0001403060998	60.0001403060998	-27.38112730080033	-14.246773044718653	27.395986523934866	14.86455650352479				
	6	8	0.00112	0.01329	0.34125	1316.0	1316.0	1316.0	0	0	1	-60.0001403060998	60.0001403060998	-60.917143826746035	-22.572496041439727	60.95840433787929	-11.616571726283059				
	6	9	0.00299	0.03675	0.9184	1427.0	1427.0	1427.0	0	0	1	-60.0001403060998	60.0001403060998	103.3424278290163	-72.55405814522463	-103.00791961789525	-17.19678986436419				
	15	6	0.00298	0.03417	0.93504	1427.0	1427.0	1427.0	0	0	1	-60.0001403060998	60.0001403060998	-55.4568646446664	-48.234852811733035	55.54759307189402	-45.41068782403496				
	31	6	0.0015	0.01506	0.4032	1385.0	1385.0	1385.0	0	0	1	-60.0001403060998	60.0001403060998	417.5715437431475	-89.1150206391467	-414.89151313596835	75.35370963445793				
	310	6	0.0015	0.06188	0.0	250.0	250.0	250.0	1.0613	0.0	1	-60.0001403060998	60.0001403060998	-148.6694970494396	-10.790076063903467	149.00669964764185	24.70080724840685				
	12	7	0.01211	0.08742	0.14017	381.0	381.0	381.0	0	0	1	-60.0001403060998	60.0001403060998	-16.24438391162716	-0.12206526408335054	16.280127635302563	-14.737714074135186				
	13	7	0.00205	0.01326	0.02243	335.0	335.0	335.0	0	0	1	-60.0001403060998	60.0001403060998	17.84306742626712	17.249597295217022	-17.830552071976182	-19.584120885680502				
	19	7	0.0057	0.0407	0.06021	323.0	323.0	323.0	0	0	1	-60.0001403060998	60.0001403060998	-23.227133638587897	19.83977099823065	23.283297511281354	-25.954008905425894				
	21	7	0.00093	0.00651	0.01113	160.0	160.0	160.0	0	0	1	-60.0001403060998	60.0001403060998	-52.68142458415371	24.061716296408072	52.71066015244814	-25.05376047696525				
	29	7	0.01269	0.07498	0.1302	362.0	362.0	362.0	0	0	1	-60.0001403060998	60.0001403060998	78.84062407481169	-10.13385963971548	-78.11332851223106	0.36774663805916125				
	321	7	0.00041	0.03368	0.0	250.0	250.0	250.0	1.0323	0.0	1	-60.0001403060998	60.0001403060998	-50.685949103936714	-19.472187935271972	50.69735006217587	20.408734943794606				
	322	7	0.00165	0.06775	0.0	160.0	160.0	160.0	1.0569	0.0	1	-60.0001403060998	60.0001403060998	-52.719793049144506	-55.830395954279446	52.81767374787674	59.84943676586033				
	8	18	0.00336	0.03977	1.02163	1316.0	1316.0	1316.0	0	0	1	-60.0001403060998	60.0001403060998	-60.95840433787929	11.616571726283059	61.214646456164566	-110.23586652750761				
	332	9	0.00087	0.05244	-0.02144	330.0	330.0	330.0	1.0781	0.0	1	-60.0001403060998	60.0001403060998	-102.91603932414277	-9.468862014357367	103.00791961789525	17.19678986436419				
	171	10	0.01409	0.10413	0.15972	463.99999999999994	463.99999999999994	463.99999999999994	0	0	1	-60.0001403060998	60.0001403060998	25.362899663249056	-10.53935374302891	-25.278449287848748	-6.057005199773323				
	346	10	0.00124	0.06839	0.0	160.0	160.0	160.0	1.0054	0.0	1	-60.0001403060998	60.0001403060998	-32.88921174492029	7.134645202717303	32.90215128587232	-6.420987778758236				
	347	10	0.00124	0.06839	0.0	160.0	160.0	160.0	1.024	0.0	1	-60.0001403060998	60.0001403060998	-19.79756130086074	-5.716313713374142	19.802489373652563	5.988112824852349				
	16	11	0.0057	0.03952	0.07553	463.99999999999994	463.99999999999994	463.99999999999994	0	0	1	-60.0001403060998	60.0001403060998	228.45559163620555	-6.174189821590082	-225.7249561983683	16.940534067429777				
	17	11	0.0057	0.03952	0.07553	463.99999999999994	463.99999999999994	463.99999999999994	0	0	1	-60.0001403060998	60.0001403060998	5.512157880890387	-27.845605437604448	-5.479732248241618	20.03692584007225				
	111	11	0.01068	0.06196	0.09496	394.0	394.0	394.0	0	0	1	-60.0001403060998	60.0001403060998	-76.47137075126034	39.8082829405587	77.22987355488866	-45.76926758412588				
	352	11	0.00165	0.06901	0.0	160.0	160.0	160.0	1.0412	0.0	1	-60.0001403060998	60.0001403060998	-48.22440375129723	8.75541666918763	48.261029722242235	-7.223563181360175				
	353	11	0.00165	0.06901	0.0	160.0	160.0	160.0	1.0559	0.0	1	-60.0001403060998	60.0001403060998	-47.58466068390047	-13.658026384090965	47.62312823470261	15.266902554306322				
	140	12	0.01465	0.10589	0.17085	463.99999999999994	463.99999999999994	463.99999999999994	0	0	1	-60.0001403060998	60.0001403060998	39.228978548996444	10.902532981388298	-38.975781561520265	-28.029286786525077				
	359	12	0.00155	0.06612	0.0	160.0	160.0	160.0	1.0395	0.0	1	-60.0001403060998	60.0001403060998	-38.28061770482943	-7.191213444582376	38.30256053156981	8.127251963339859				
	360	12	0.00157	0.06612	0.0	160.0	160.0	160.0	1.059	0.0	1	-60.0001403060998	60.0001403060998	-16.907643015151926	-19.60455704569755	16.91760494157761	20.024100087268568				
	29	13	0.01345	0.08114	0.14113	339.0	339.0	339.0	0	0	1	-60.0001403060998	60.0001403060998	70.11674589860242	-13.391237142199476	-69.50390560596644	1.8047005014569037				
	365	13	0.00165	0.06901	0.0	160.0	160.0	160.0	1.0312	0.0	1	-60.0001403060998	60.0001403060998	-21.437643977086076	-6.502196971919219	21.445384262086183	6.825928528196173				
	366	13	0.00165	0.06901	0.0	160.0	160.0	160.0	0.9872	0.0	1	-60.0001403060998	60.0001403060998	-30.191266228048086	26.891858116921263	30.215453917613132	-25.880226324870097				
	17	14	0.00384	0.02853	0.04588	463.99999999999994	463.99999999999994	463.99999999999994	0	0	1	-60.0001403060998	60.0001403060998	52.31834953223142	10.893878700471843	-52.212214578393954	-14.917049747791742				
	367	14	0.00157	0.06798	0.0	160.0	160.0	160.0	1.0664	0.0	1	-60.0001403060998	60.0001403060998	-45.98292639085867	-20.827818871863194	46.0224535453989	22.53931948692293				
	368	14	0.00165	0.06901	0.0	160.0	160.0	160.0	1.0777	0.0	1	-60.0001403060998	60.0001403060998	-17.295850800057615	-32.186242509183145	17.3179365571499	33.10996256793363				
	18	15	0.00358	0.04262	1.0944	1662.0	1662.0	1662.0	0	0	1	-60.0001403060998	60.0001403060998	119.19262535099146	-104.21397303273294	-118.57377713690876	3.080832759816517				
	15	165	0.00207	0.02474	0.664	831.0	831.0	831.0	0	0	1	-60.0001403060998	60.0001403060998	85.8162795121842	-15.986883767735465	-85.65909780198541	-48.83875737710816				
	374	15	0.0015	0.06188	0.0	250.0	250.0	250.0	1.1502	0.0	1	-60.0001403060998	60.0001403060998	-88.04335275111393	-54.08619115899753	88.21436226939096	61.14090381965197				
	16	18	0.00036	0.02519	0.0	500.0	500.0	500.0	1.0605	0.0	1	-60.0001403060998	60.0001403060998	216.46394244554662	-4.09477823680281	-216.28976161993947	16.282597673035195				
	16	73	0.00909	0.0624	0.11142	463.99999999999994	463.99999999999994	463.99999999999994	0	0	1	-60.0001403060998	60.0001403060998	21.131505557944543	-10.646769469001367	-21.092503781440346	-1.2367105362190485				
	17	18	0.00036	0.02519	0.0	500.0	500.0	500.0	1.0607	0.0	1	-60.0001403060998	60.0001403060998	-92.51892861078301	-66.67994134660627	92.5688862982399	70.17559175505096				
	17	74	0.00868	0.06405	0.09699	463.99999999999994	463.99999999999994	463.99999999999994	0	0	1	-60.0001403060998	60.0001403060998	-79.04899381128905	-18.28210800928956	79.57764895586008	11.795220458255297				
	20	18	0.00063	0.00749	0.39226	1427.0	1427.0	1427.0	0	0	1	-60.0001403060998	60.0001403060998	79.78959491808196	39.06082705985598	-79.72693287700034	-76.64772095879157				
	75	18	0.00219	0.02369	0.59584	1434.0	1434.0	1434.0	0	0	1	-60.0001403060998	60.0001403060998	1.7709990280383332	-23.062515919159942	-1.7701221102090392	-34.95210919461223				
	18	76	0.00137	0.01625	0.41184	1662.0	1662.0	1662.0	0	0	1	-60.0001403060998	60.0001403060998	-2.1662035985932846	-28.592829203626795	2.167304489344337	-11.498528353447256				
	18	101	0.00231	0.02769	0.70144	1662.0	1662.0	1662.0	0	0	1	-60.0001403060998	60.0001403060998	-64.8231388872423	-81.81569065028516	64.97704737265691	14.405367433709412				
	124	19	0.01696	0.12366	0.19699	463.99999999999994	463.99999999999994	463.99999999999994	0	0	1	-60.0001403060998	60.0001403060998	30.800953786134734	3.4863358047099444	-30.62707810026413	-24.13679513834297				
	425	19	0.00165	0.06818	0.0	160.0	160.0	160.0	1.0241	0.0	1	-60.0001403060998	60.0001403060998	-53.81003277592311	-2.471495841632073	53.85421173885203	4.297024140112317				
	67	20	0.00331	0.03425	0.85888	831.0	831.0	831.0	0	0	1	-60.0001403060998	60.0001403060998	163.17987797013382	-26.25487222060717	-162.29023799479862	-49.705450072380025				
	447	20	0.00137	0.06119	-0.01504	250.0	250.0	250.0	1.0796	0.0	1	-60.0001403060998	60.0001403060998	-46.84651685891944	5.05960106637674	46.87729357395152	-2.205605018680807				
	448	20	0.00137	0.06119	-0.01504	250.0	250.0	250.0	1.0923	0.0	1	-60.0001403060998	60.0001403060998	-35.60359964479925	-10.50258880458849	35.623349502765116	12.85022803120485				
	502	21	0.00165	0.07107	0.0	160.0	160.0	160.0	0.9922	0.0	1	-60.0001403060998	60.0001403060998	-52.63000240872512	26.276609634414445	52.68142458415371	-24.061716296408072				
	112	22	0.00465	0.02618	0.02962	362.0	362.0	362.0	0	0	1	-60.0001403060998	60.0001403060998	-49.352239103249346	60.48993179378444	49.61614518542222	-62.24928957101882				
	526	22	0.00165	0.06901	0.0	160.0	160.0	160.0	1.0685	0.0	1	-60.0001403060998	60.0001403060998	-21.65788070245742	-37.40015418349352	21.68784210406796	38.65326710782314				
	527	22	0.00165	0.06901	0.0	160.0	160.0	160.0	1.0424	0.0	1	-60.0001403060998	60.0001403060998	14.181746973028893	0.22497804312040037	-14.178680665180599	-0.09673204032573723				
	37	23	0.01163	0.07031	0.1058	394.0	394.0	394.0	0	0	1	-60.0001403060998	60.0001403060998	22.471191886614584	-5.413110578330585	-22.417562700121945	-5.822302016216559				
	46	23	0.00837	0.04868	0.07348	457.0	457.0	457.0	0	0	1	-60.0001403060998	60.0001403060998	-6.115083986329507	-15.954723067006713	6.129175491951085	8.075447578136886				
	53	23	0.01122	0.06558	0.09835	274.0	274.0	274.0	0	0	1	-60.0001403060998	60.0001403060998	36.49169182525609	-7.109609289281773	-36.35496650982252	-2.8362010805189795				
	540	23	0.0014	0.0668	0.0	160.0	160.0	160.0	1.0182	0.0	1	-60.0001403060998	60.0001403060998	-52.60774877507291	1.1158089007489087	52.64335371799338	0.5830555185986519				
	54	24	0.00769	0.05727	0.08789	160.0	160.0	160.0	0	0	1	-60.0001403060998	60.0001403060998	17.520993611010383	-16.940462222566914	-17.489578382093285	7.385633721213783				
	545	24	0.00151	0.06715	0.0	160.0	160.0	160.0	1.0161	0.0	1	-60.0001403060998	60.0001403060998	-17.484716318226553	7.601850667339957	17.489578382093285	-7.385633721213783				
	41	25	0.00556	0.04145	0.0636	274.0	274.0	274.0	0	0	1	-60.0001403060998	60.0001403060998	52.5201792953193	-4.011339210209675	-52.38230566354516	-2.0200592133048514				
	53	25	0.00452	0.03368	0.05169	463.99999999999994	463.99999999999994	463.99999999999994	0	0	1	-60.0001403060998	60.0001403060998	-74.80692501062576	-10.050820274237006	75.04002865605163	6.094990228455243				
	54	25	0.00019	0.0014	0.00213	463.99999999999994	463.99999999999994	463.99999999999994	0	0	1	-60.0001403060998	60.0001403060998	60.72389078110144	16.038299977603888	-60.7171207666373	-16.224372690097482				
	564	25	0.00157	0.07808	0.0	160.0	160.0	160.0	1.0276	0.0	1	-60.0001403060998	60.0001403060998	-38.0367697056753	-11.024091620802418	38.05939777413082	12.14944167494709				
	38	26	0.00698	0.05196	0.07967	160.0	160.0	160.0	0	0	1	-60.0001403060998	60.0001403060998	51.8928940622845	-3.012127630602261	-51.72117491528769	-4.404347006940993				
	568	26	0.00149	0.06616	0.0	160.0	160.0	160.0	1.013	0.0	1	-60.0001403060998	60.0001403060998	-51.68425279621628	-2.7649058003870257	51.72117491528769	4.404347006940993				
	28	27	0.0	0.0001	0.0	876.0	876.0	876.0	0	0	1	-60.0001403060998	60.0001403060998	83.80733593983888	0.5266513910192299	-83.80733593983888	-0.520183900888149				
	33	27	0.0024	0.01494	0.02253	160.0	160.0	160.0	0	0	1	-60.0001403060998	60.0001403060998	-64.30549074798255	-11.271621365139348	64.39964326437793	9.417839990573052				
	48	27	0.01213	0.06215	0.09371	362.0	362.0	362.0	0	0	1	-60.0001403060998	60.0001403060998	-72.62282542140368	4.462194553847546	73.22632648244434	-11.510836645972871				
	27	74	0.01116	0.07231	0.10367	304.0	304.0	304.0	0	0	1	-60.0001403060998	60.0001403060998	-53.81863380698337	2.6131805562879697	54.123250733931826	-11.90645450201398				
	47	28	0.00248	0.01798	0.02759	463.99999999999994	463.99999999999994	463.99999999999994	0	0	1	-60.0001403060998	60.0001403060998	-42.00562191203748	7.290941044242033	42.047639153429955	-9.984107373466719				
	28	88	0.01488	0.08161	0.1148	362.0	362.0	362.0	0	0	1	-60.0001403060998	60.0001403060998	-125.85497509326883	9.457455982447488	128.0589022754041	-9.964135624461907				
	30	29	0.0	0.0001	0.0	876.0	876.0	876.0	0	0	1	-60.0001403060998	60.0001403060998	-56.01954066586339	-42.80368443997948	56.01954066586339	42.80826074562969				
	29	32	0.00034	0.02097	0.0	500.0	500.0	500.0	1.0619	0.0	1	-60.0001403060998	60.0001403060998	-369.68754073514447	-71.5723424763282	370.1880251796637	102.440456598587				
	45	29	0.00545	0.04021	0.06699	463.99999999999994	463.99999999999994	463.99999999999994	0	0	1	-60.0001403060998	60.0001403060998	-22.94060736575777	-11.778242533406234	22.97061612839989	4.753949869836804				
	48	29	0.00574	0.04283	0.06573	463.99999999999994	463.99999999999994	463.99999999999994	0	0	1	-60.0001403060998	60.0001403060998	-18.711940585455807	-10.223786813183738	18.732955413926334	3.267157767790069				
	613	29	0.00157	0.06775	0.0	160.0	160.0	160.0	1.0016	0.0	1	-60.0001403060998	60.0001403060998	-107.25128459764485	-1.0281862021379717	107.41905756037207	8.2680704217353				
	46	30	0.00545	0.04021	0.06699	463.99999999999994	463.99999999999994	463.99999999999994	0	0	1	-60.0001403060998	60.0001403060998	-22.71042213310208	-11.63699190491203	22.73978171064094	4.608011490826068				
	49	30	0.00707	0.04541	0.06931	362.0	362.0	362.0	0	0	1	-60.0001403060998	60.0001403060998	-17.669071378680908	-9.550554962549231	17.69175796133281	2.195672495485625				
	32	31	0.0	0.0001	0.0	1593.0	1593.0	1593.0	0	0	1	-60.0001403060998	60.0001403060998	-587.618148839008	-118.16755788180195	587.618148839008	118.52600829825015				
	39	31	0.00176	0.02144	0.57344	1385.0	1385.0	1385.0	0	0	1	-60.0001403060998	60.0001403060998	17.799742823522667	1.7961988713519987	-17.777682600261546	-59.41098834046872				
	36	32	0.00167	0.0189	0.54176	498.00000000000006	498.00000000000006	498.00000000000006	0	0	1	-60.0001403060998	60.0001403060998	-216.61176136141756	-60.17560254479605	217.43012365934425	15.727101283214944				
	615	33	0.00163	0.06946	0.0	160.0	160.0	160.0	1.0291	0.0	1	-60.0001403060998	60.0001403060998	-64.24115389592683	-8.530003117415335	64.30549074798255	11.271621365139348				
	35	34	0.0	0.0001	0.0	1593.0	1593.0	1593.0	0	0	1	-60.0001403060998	60.0001403060998	-79.19866359441292	44.6874296130086	79.19866359441292	-44.67983029364993				
...